&HEAD CHID='restart_fds_case', TITLE='Scheduler stop restart smoke test' /
&MESH IJK=24,24,24, XB=0,1,0,1,0,1 /
&TIME T_END=20.0 /
&DUMP DT_RESTART=1.0, DT_DEVC=1.0 /
&DEVC ID='temp_center', QUANTITY='TEMPERATURE', XYZ=0.5,0.5,0.5 /
&VENT XB=0,1,0,0,0,1, SURF_ID='OPEN' /
&TAIL /
